<?xml version="1.0" encoding="utf-8"?>
<layout>

    <LinearLayout xmlns:android="http://schemas.android.com/apk/res/android"
        xmlns:app="http://schemas.android.com/apk/res-auto"
        android:id="@+id/headerView"
        android:layout_width="match_parent"
        android:layout_height="match_parent"
        android:fitsSystemWindows="false"
        android:orientation="vertical">

        <View
            android:id="@+id/statusbar"
            android:layout_width="match_parent"
            android:layout_height="1dp"
            android:background="@color/colorPrimaryDark" />

        <android.support.v7.widget.Toolbar
            android:id="@+id/toolbar"
            android:layout_width="match_parent"
            android:layout_height="@dimen/actionbarheight"
            android:background="?attr/colorPrimary"
            app:popupTheme="@style/ThemeOverlay.AppCompat.Light"
            app:theme="@style/Toolbar"
            app:titleTextAppearance="@style/Toolbar.TitleText" />


        <LinearLayout
            android:layout_width="match_parent"
            android:layout_height="match_parent"
            android:orientation="vertical">

            <LinearLayout
                android:layout_width="match_parent"
                android:layout_height="40dp"
                android:gravity="center_vertical"
                android:orientation="horizontal">

                <View
                    android:layout_width="5dp"
                    android:layout_height="20dp"
                    android:background="@color/colorPrimary" />

                <TextView
                    android:layout_width="wrap_content"
                    android:layout_height="match_parent"
                    android:layout_marginStart="8dp"
                    android:layout_marginLeft="8dp"
                    android:layout_weight="1"
                    android:gravity="center_vertical"
                    android:text="消息内容"
                    android:textColor="@color/black" />

            </LinearLayout>

            <View
                android:layout_width="match_parent"
                android:layout_height="1dp"
                android:background="@color/divider_color">

            </View>

            <RelativeLayout
                android:layout_width="match_parent"
                android:layout_height="162dp">

                <net.suntrans.looney.widgets.EditView
                    android:id="@+id/msg"
                    android:layout_width="match_parent"
                    android:layout_height="160dp"
                    android:background="@color/white"
                    android:gravity="start"
                    android:hint="请输入消息"
                    android:maxLength="30"
                    android:padding="8dp"
                    android:paddingLeft="16dp"
                    android:textSize="15sp" />

                <TextView
                    android:id="@+id/count"
                    android:layout_width="wrap_content"
                    android:layout_height="wrap_content"
                    android:layout_alignParentRight="true"
                    android:layout_alignParentBottom="true"
                    android:layout_marginRight="16dp"
                    android:layout_marginBottom="16dp"
                    android:text="0/30" />

            </RelativeLayout>

            <View
                android:layout_width="match_parent"
                android:layout_height="10dp"
                android:background="@color/divider_color">

            </View>

            <LinearLayout
                android:layout_width="match_parent"
                android:layout_height="40dp"
                android:gravity="center_vertical"
                android:orientation="horizontal">

                <View
                    android:layout_width="5dp"
                    android:layout_height="20dp"
                    android:background="@color/colorPrimary" />

                <TextView
                    android:layout_width="wrap_content"
                    android:layout_height="match_parent"
                    android:layout_marginStart="8dp"
                    android:layout_marginLeft="8dp"
                    android:layout_weight="1"
                    android:gravity="center_vertical"
                    android:text="消息时效"
                    android:textColor="@color/black" />

            </LinearLayout>

            <View
                android:layout_width="match_parent"
                android:layout_height="1dp"
                android:background="@color/divider_color">

            </View>
            <LinearLayout
                android:layout_width="match_parent"
                android:layout_height="50dp">
                <android.support.v7.widget.AppCompatSpinner
                    android:id="@+id/delay"
                    android:paddingLeft="16dp"
                    android:ellipsize="end"
                    android:entries="@array/delay"
                    android:maxLength="16"
                    android:maxLines="1"
                    android:layout_width="match_parent"
                    android:layout_height="match_parent">

                </android.support.v7.widget.AppCompatSpinner>
            </LinearLayout>

            <View
                android:layout_width="match_parent"
                android:layout_height="10dp"
                android:background="@color/divider_color">

            </View>

            <FrameLayout
                android:layout_width="match_parent"
                android:layout_height="50dp"
                android:layout_marginTop="16dp"
                android:paddingLeft="16dp"
                android:paddingRight="16dp">

                <Button
                    android:textColor="@color/white"
                    android:text="提交"
                    android:id="@+id/commit"
                    android:layout_width="match_parent"
                    android:layout_height="wrap_content"
                    android:background="@drawable/bg_bt_login" />
            </FrameLayout>


        </LinearLayout>

        <!--<WebView-->
        <!--android:id="@+id/webview"-->
        <!--android:layout_width="match_parent"-->
        <!--android:layout_height="match_parent">-->

        <!--</WebView>-->


    </LinearLayout>
</layout>